[General]
network = MobileNetwork


# duration settings
sim-time-limit = 604800s


# cmdenv settings
cmdenv-express-mode = false
cmdenv-event-banners = false
**.cmdenv-log-level = info
cmdenv-log-prefix = %l
cmdenv-output-file = ${resultdir}/${runid}-log2.txt
cmdenv-redirect-output = true


# event logging
record-eventlog = false


# nodes
**.numNodes = 50


# wireless parameters
**.wirelessIfc.wirelessRange = 30m


# mobility parameters for RWP
**.constraintAreaMinX = 0m
**.constraintAreaMinY = 0m
**.constraintAreaMinZ = 0m
**.constraintAreaMaxX = 553429m
**.constraintAreaMaxY = 844356m
**.constraintAreaMaxZ = 0m
**.updateInterval = 1s
**.mobilityType = "RandomWPMobility"
**.mobility.initFromDisplayString = false
**.mobility.speed = 5.98mps
**.mobility.waitTime = 600s


